Version 4
SHEET 1 1220 820
WIRE -400 -96 -432 -96
WIRE -320 -96 -336 -96
WIRE 128 -96 96 -96
WIRE 208 -96 192 -96
WIRE -432 -48 -432 -96
WIRE -432 -48 -496 -48
WIRE -320 -48 -320 -96
WIRE -192 -48 -320 -48
WIRE 0 -48 -192 -48
WIRE 96 -48 96 -96
WIRE 96 -48 0 -48
WIRE 208 -48 208 -96
WIRE 336 -48 208 -48
WIRE -192 -16 -192 -48
WIRE -432 0 -432 -48
WIRE -416 0 -432 0
WIRE -320 0 -320 -48
WIRE -320 0 -336 0
WIRE 96 0 96 -48
WIRE 112 0 96 0
WIRE 208 0 208 -48
WIRE 208 0 192 0
WIRE 0 64 0 -48
WIRE 160 96 160 80
WIRE 160 192 160 176
WIRE -176 208 -240 208
WIRE -48 208 -96 208
WIRE -48 272 -48 208
WIRE 0 272 0 144
WIRE 0 272 -48 272
WIRE 80 272 0 272
WIRE 336 272 336 -48
WIRE 336 272 288 272
WIRE 432 272 432 240
WIRE 432 272 336 272
WIRE 480 272 432 272
WIRE -496 288 -496 -48
WIRE -496 288 -576 288
WIRE -240 288 -240 208
WIRE 0 320 -48 320
WIRE 80 320 0 320
WIRE 608 320 608 240
WIRE 944 320 944 240
WIRE 336 336 288 336
WIRE 432 336 336 336
WIRE 480 336 432 336
WIRE 432 368 432 336
WIRE -240 384 -240 288
WIRE -176 384 -240 384
WIRE -48 384 -48 320
WIRE -48 384 -96 384
WIRE 0 416 0 320
WIRE 160 416 160 400
WIRE 160 512 160 496
WIRE -400 592 -432 592
WIRE -320 592 -336 592
WIRE 144 592 112 592
WIRE 224 592 208 592
WIRE -496 640 -496 288
WIRE -432 640 -432 592
WIRE -432 640 -496 640
WIRE -320 640 -320 592
WIRE -224 640 -224 576
WIRE -224 640 -320 640
WIRE 0 640 0 496
WIRE 0 640 -224 640
WIRE 112 640 112 592
WIRE 112 640 0 640
WIRE 224 640 224 592
WIRE 336 640 336 336
WIRE 336 640 224 640
WIRE -432 688 -432 640
WIRE -416 688 -432 688
WIRE -320 688 -320 640
WIRE -320 688 -336 688
WIRE 112 688 112 640
WIRE 128 688 112 688
WIRE 224 688 224 640
WIRE 224 688 208 688
FLAG 160 80 0
FLAG 160 512 0
FLAG 480 272 Vop
FLAG 480 336 Von
FLAG 608 400 0
FLAG 608 240 Vo
FLAG 432 176 0
FLAG 432 432 0
FLAG -320 288 0
FLAG -1296 480 0
FLAG -1296 400 Vi
FLAG -656 288 0
FLAG -192 -16 Vinp-
FLAG -224 576 Vinp+
FLAG 944 400 0
FLAG 944 240 Vinp
DATAFLAG -64 208 "round($*100)/100"
DATAFLAG -32 320 "round($*100)/100"
DATAFLAG 0 272 "round($*100)/100"
DATAFLAG 304 272 "round($*100)/100"
DATAFLAG 368 336 "round($*100)/100"
DATAFLAG 608 288 "round($*100)/100"
DATAFLAG -128 -48 "round($*100)/100"
DATAFLAG -160 640 "round($*100)/100"
SYMBOL op_amp 192 384 R0
WINDOW 39 79 391 Bottom 2
SYMATTR SpiceLine Rbn={Rbn} Rbp={Rbp} Sa={Sa} Rmp={Rmp} R34={R34} Ibmain = {Ibmain} Sa_b={Sa_b} Cin={Cin}
SYMATTR InstName X1
SYMBOL voltage 160 192 R180
WINDOW 0 24 96 Left 2
WINDOW 3 24 16 Left 2
WINDOW 123 0 0 Left 0
WINDOW 39 0 0 Left 0
SYMATTR InstName Vdd
SYMATTR Value 1.8
SYMBOL voltage 160 400 R0
WINDOW 123 0 0 Left 0
WINDOW 39 0 0 Left 0
SYMATTR InstName Vddb
SYMATTR Value 1.8
SYMBOL bv 608 304 R0
SYMATTR InstName B3
SYMATTR Value V=V(Vop)-V(Von)
SYMBOL cap -336 -112 R90
WINDOW 0 0 32 VBottom 2
WINDOW 3 32 32 VTop 2
SYMATTR InstName Cin1
SYMATTR Value {Cin}
SYMBOL res -320 -16 R90
WINDOW 0 0 56 VBottom 2
WINDOW 3 32 56 VTop 2
SYMATTR InstName Rin1
SYMATTR Value {Rin}
SYMBOL cap -336 576 R90
WINDOW 0 0 32 VBottom 2
WINDOW 3 32 32 VTop 2
SYMATTR InstName Cin2
SYMATTR Value {Cin}
SYMBOL res -320 672 R90
WINDOW 0 0 56 VBottom 2
WINDOW 3 32 56 VTop 2
SYMATTR InstName Rin2
SYMATTR Value {Rin}
SYMBOL cap 192 -112 R90
WINDOW 0 0 32 VBottom 2
WINDOW 3 32 32 VTop 2
SYMATTR InstName Cfb1
SYMATTR Value {Cin/8}
SYMBOL res 208 -16 R90
WINDOW 0 0 56 VBottom 2
WINDOW 3 32 56 VTop 2
SYMATTR InstName Rfb1
SYMATTR Value {8*Rin}
SYMBOL cap 208 576 R90
WINDOW 0 0 32 VBottom 2
WINDOW 3 32 32 VTop 2
SYMATTR InstName Cfb2
SYMATTR Value {Cin/8}
SYMBOL res 224 672 R90
WINDOW 0 0 56 VBottom 2
WINDOW 3 32 56 VTop 2
SYMATTR InstName Rfb2
SYMATTR Value {8*Rin}
SYMBOL cap 416 176 R0
SYMATTR InstName Cload1
SYMATTR Value {Cin}
SYMBOL cap 416 368 R0
SYMATTR InstName Cload2
SYMATTR Value {Cin}
SYMBOL bv -80 208 R90
WINDOW 0 -32 56 VBottom 2
WINDOW 3 32 56 VTop 2
SYMATTR InstName B1
SYMATTR Value V=-V(Vi)/2
SYMBOL bv -80 384 R90
WINDOW 0 -32 56 VBottom 2
WINDOW 3 32 56 VTop 2
SYMATTR InstName B2
SYMATTR Value V=V(Vi)/2
SYMBOL voltage -224 288 R90
WINDOW 0 -32 56 VBottom 2
WINDOW 3 32 56 VTop 2
WINDOW 123 0 0 Left 0
WINDOW 39 0 0 Left 0
SYMATTR InstName V1
SYMATTR Value 0.9
SYMBOL voltage -1296 384 R0
WINDOW 123 24 124 Left 2
WINDOW 39 0 0 Left 0
WINDOW 3 24 44 Left 2
SYMATTR Value2 AC 1
SYMATTR Value PULSE(0 150m 1u 0 0 10m 0 1)
SYMATTR InstName Vi
SYMBOL voltage -560 288 R90
WINDOW 0 -32 56 VBottom 2
WINDOW 3 32 56 VTop 2
WINDOW 123 0 0 Left 0
WINDOW 39 0 0 Left 0
SYMATTR InstName V2
SYMATTR Value 0.9
SYMBOL ind -16 48 R0
SYMATTR InstName L1
SYMATTR Value 1T
SYMBOL ind -16 400 R0
SYMATTR InstName L2
SYMATTR Value 1T
SYMBOL bv 944 304 R0
SYMATTR InstName B4
SYMATTR Value V=V(Vinp+)-V(Vinp-)
TEXT -32 -224 Left 2 !.param Rbn=4.8 Rbp=6.2
TEXT -32 -192 Left 2 !.param Cin=0.17p Ibmain=200u/150 R34=2 Rmp=4.85 Sa_b=15 Sa=275*150
TEXT -360 -256 Left 2 !.lib 'C:\\Users\\terlo\\OneDrive\\Documenten\\LTspiceXVII\\lib\\cmp\\log018.l' TT
TEXT 160 -160 Left 2 !.param Rin=100G
