Version 4
SHEET 1 880 680
WIRE -304 80 -336 80
WIRE -272 80 -304 80
WIRE 160 96 160 80
WIRE -336 144 -336 80
WIRE 160 192 160 176
WIRE 512 256 512 176
WIRE 80 272 32 272
WIRE 336 272 288 272
WIRE 80 320 32 320
WIRE 336 336 288 336
WIRE 160 416 160 400
WIRE 160 512 160 496
FLAG 160 80 0
FLAG 160 512 0
FLAG -336 224 0
FLAG -304 80 Vi
FLAG 32 192 0
FLAG 32 400 0
FLAG 336 272 Vop
FLAG 336 336 Von
FLAG 512 336 0
FLAG 512 176 Vo
SYMBOL op_amp 192 384 R0
WINDOW 39 65 175 Bottom 2
SYMATTR InstName X1
SYMATTR SpiceLine Rbn={Rbn} Rbp={Rbp} Sa={Sa} Rmp={Rmp} R34={R34}
SYMBOL voltage 160 192 R180
WINDOW 0 24 96 Left 2
WINDOW 3 24 16 Left 2
WINDOW 123 0 0 Left 0
WINDOW 39 0 0 Left 0
SYMATTR InstName V1
SYMATTR Value 1.8
SYMBOL voltage 160 400 R0
WINDOW 123 0 0 Left 0
WINDOW 39 0 0 Left 0
SYMATTR InstName V2
SYMATTR Value 1.8
SYMBOL voltage -336 128 R0
WINDOW 123 24 124 Left 2
WINDOW 39 0 0 Left 0
SYMATTR InstName V6
SYMATTR Value ""
SYMATTR Value2 AC 1
SYMBOL bv 32 288 R180
WINDOW 0 24 96 Left 2
WINDOW 3 24 16 Left 2
SYMATTR InstName B1
SYMATTR Value V=0.9+V(Vi)/2
SYMBOL bv 32 304 M0
SYMATTR InstName B2
SYMATTR Value V=0.9-V(Vi)/2
SYMBOL bv 512 240 R0
SYMATTR InstName B3
SYMATTR Value V=V(Vop)-V(Von)
TEXT -8 0 Left 2 !.param Rbn=4.8 Rbp=6.2
TEXT -8 32 Left 2 !.param Sa=1 Rmp=1 R34=2
TEXT -370 566 Left 2 !.ac dec 1000 1 100G
TEXT -424 -144 Left 2 !.lib 'C:\\Users\\terlo\\OneDrive\\Documenten\\LTspiceXVII\\lib\\cmp\\log018.l' TT
